
---------- Begin Simulation Statistics ----------
simSeconds                                        400                       # Number of seconds simulated (Second)
simTicks                                 400000000000000                       # Number of ticks simulated (Tick)
finalTick                                400732922989021                       # Number of ticks from beginning of simulation (restored from checkpoints and never reset) (Tick)
simFreq                                  1000000000000                       # The number of ticks per simulated second ((Tick/Second))
hostSeconds                                  20006.52                       # Real time elapsed on the host (Second)
hostTickRate                              19993486768                       # The number of ticks simulated per host second (ticks/s) ((Tick/Second))
hostMemory                                   35764260                       # Number of bytes of host memory used (Byte)
simInsts                                   4247334080                       # Number of instructions simulated (Count)
simOps                                     5318993630                       # Number of ops (including micro ops) simulated (Count)
hostInstRate                                   212298                       # Simulator instruction rate (inst/s) ((Count/Second))
hostOpRate                                     265863                       # Simulator op (including micro ops) rate (op/s) ((Count/Second))
board.cache_hierarchy.iocache.blockedCycles::no_mshrs            0                       # number of cycles access was blocked (Cycle)
board.cache_hierarchy.iocache.blockedCycles::no_wbuffers            0                       # number of cycles access was blocked (Cycle)
board.cache_hierarchy.iocache.blockedCycles::no_targets            0                       # number of cycles access was blocked (Cycle)
board.cache_hierarchy.iocache.blockedCauses::no_mshrs            0                       # number of times access was blocked (Count)
board.cache_hierarchy.iocache.blockedCauses::no_wbuffers            0                       # number of times access was blocked (Count)
board.cache_hierarchy.iocache.blockedCauses::no_targets            0                       # number of times access was blocked (Count)
board.cache_hierarchy.iocache.avgBlocked::no_mshrs          nan                       # average number of cycles each access was blocked ((Cycle/Count))
board.cache_hierarchy.iocache.avgBlocked::no_wbuffers          nan                       # average number of cycles each access was blocked ((Cycle/Count))
board.cache_hierarchy.iocache.avgBlocked::no_targets          nan                       # average number of cycles each access was blocked ((Cycle/Count))
board.cache_hierarchy.iocache.replacements            0                       # number of replacements (Count)
board.cache_hierarchy.iocache.power_state.pwrStateResidencyTicks::UNDEFINED 400732922989021                       # Cumulative time (in ticks) in various power states (Tick)
board.cache_hierarchy.iocache.tags.tagsInUse            0                       # Average ticks per tags in use ((Tick/Count))
board.cache_hierarchy.iocache.tags.totalRefs            0                       # Total number of references to valid blocks. (Count)
board.cache_hierarchy.iocache.tags.sampledRefs            0                       # Sample count of references to valid blocks. (Count)
board.cache_hierarchy.iocache.tags.avgRefs          nan                       # Average number of references to valid blocks. ((Count/Count))
board.cache_hierarchy.iocache.tags.warmupTick            0                       # The tick when the warmup percentage was hit. (Tick)
board.cache_hierarchy.iocache.tags.tagAccesses            0                       # Number of tag accesses (Count)
board.cache_hierarchy.iocache.tags.dataAccesses            0                       # Number of data accesses (Count)
board.cache_hierarchy.iocache.tags.power_state.pwrStateResidencyTicks::UNDEFINED 400732922989021                       # Cumulative time (in ticks) in various power states (Tick)
board.cache_hierarchy.l1d-cache-0.demandHits::processor.o30.core.data    256909485                       # number of demand (read+write) hits (Count)
board.cache_hierarchy.l1d-cache-0.demandHits::total    256909485                       # number of demand (read+write) hits (Count)
board.cache_hierarchy.l1d-cache-0.overallHits::processor.o30.core.data    258123892                       # number of overall hits (Count)
board.cache_hierarchy.l1d-cache-0.overallHits::total    258123892                       # number of overall hits (Count)
board.cache_hierarchy.l1d-cache-0.demandMisses::processor.o30.core.data      3506916                       # number of demand (read+write) misses (Count)
board.cache_hierarchy.l1d-cache-0.demandMisses::total      3506916                       # number of demand (read+write) misses (Count)
board.cache_hierarchy.l1d-cache-0.overallMisses::processor.o30.core.data      3705137                       # number of overall misses (Count)
board.cache_hierarchy.l1d-cache-0.overallMisses::total      3705137                       # number of overall misses (Count)
board.cache_hierarchy.l1d-cache-0.demandMissLatency::processor.o30.core.data  47938142611                       # number of demand (read+write) miss ticks (Tick)
board.cache_hierarchy.l1d-cache-0.demandMissLatency::total  47938142611                       # number of demand (read+write) miss ticks (Tick)
board.cache_hierarchy.l1d-cache-0.overallMissLatency::processor.o30.core.data  47938142611                       # number of overall miss ticks (Tick)
board.cache_hierarchy.l1d-cache-0.overallMissLatency::total  47938142611                       # number of overall miss ticks (Tick)
board.cache_hierarchy.l1d-cache-0.demandAccesses::processor.o30.core.data    260416401                       # number of demand (read+write) accesses (Count)
board.cache_hierarchy.l1d-cache-0.demandAccesses::total    260416401                       # number of demand (read+write) accesses (Count)
board.cache_hierarchy.l1d-cache-0.overallAccesses::processor.o30.core.data    261829029                       # number of overall (read+write) accesses (Count)
board.cache_hierarchy.l1d-cache-0.overallAccesses::total    261829029                       # number of overall (read+write) accesses (Count)
board.cache_hierarchy.l1d-cache-0.demandMissRate::processor.o30.core.data     0.013467                       # miss rate for demand accesses (Ratio)
board.cache_hierarchy.l1d-cache-0.demandMissRate::total     0.013467                       # miss rate for demand accesses (Ratio)
board.cache_hierarchy.l1d-cache-0.overallMissRate::processor.o30.core.data     0.014151                       # miss rate for overall accesses (Ratio)
board.cache_hierarchy.l1d-cache-0.overallMissRate::total     0.014151                       # miss rate for overall accesses (Ratio)
board.cache_hierarchy.l1d-cache-0.demandAvgMissLatency::processor.o30.core.data 13669.601043                       # average overall miss latency in ticks ((Tick/Count))
board.cache_hierarchy.l1d-cache-0.demandAvgMissLatency::total 13669.601043                       # average overall miss latency in ticks ((Tick/Count))
board.cache_hierarchy.l1d-cache-0.overallAvgMissLatency::processor.o30.core.data 12938.291516                       # average overall miss latency ((Tick/Count))
board.cache_hierarchy.l1d-cache-0.overallAvgMissLatency::total 12938.291516                       # average overall miss latency ((Tick/Count))
board.cache_hierarchy.l1d-cache-0.blockedCycles::no_mshrs      2220219                       # number of cycles access was blocked (Cycle)
board.cache_hierarchy.l1d-cache-0.blockedCycles::no_wbuffers       419912                       # number of cycles access was blocked (Cycle)
board.cache_hierarchy.l1d-cache-0.blockedCycles::no_targets          113                       # number of cycles access was blocked (Cycle)
board.cache_hierarchy.l1d-cache-0.blockedCauses::no_mshrs       259856                       # number of times access was blocked (Count)
board.cache_hierarchy.l1d-cache-0.blockedCauses::no_wbuffers        31945                       # number of times access was blocked (Count)
board.cache_hierarchy.l1d-cache-0.blockedCauses::no_targets            4                       # number of times access was blocked (Count)
board.cache_hierarchy.l1d-cache-0.avgBlocked::no_mshrs     8.544036                       # average number of cycles each access was blocked ((Cycle/Count))
board.cache_hierarchy.l1d-cache-0.avgBlocked::no_wbuffers    13.144843                       # average number of cycles each access was blocked ((Cycle/Count))
board.cache_hierarchy.l1d-cache-0.avgBlocked::no_targets    28.250000                       # average number of cycles each access was blocked ((Cycle/Count))
board.cache_hierarchy.l1d-cache-0.writebacks::writebacks       416817                       # number of writebacks (Count)
board.cache_hierarchy.l1d-cache-0.writebacks::total       416817                       # number of writebacks (Count)
board.cache_hierarchy.l1d-cache-0.demandMshrHits::processor.o30.core.data      2134625                       # number of demand (read+write) MSHR hits (Count)
board.cache_hierarchy.l1d-cache-0.demandMshrHits::total      2134625                       # number of demand (read+write) MSHR hits (Count)
board.cache_hierarchy.l1d-cache-0.overallMshrHits::processor.o30.core.data      2134625                       # number of overall MSHR hits (Count)
board.cache_hierarchy.l1d-cache-0.overallMshrHits::total      2134625                       # number of overall MSHR hits (Count)
board.cache_hierarchy.l1d-cache-0.demandMshrMisses::processor.o30.core.data      1372291                       # number of demand (read+write) MSHR misses (Count)
board.cache_hierarchy.l1d-cache-0.demandMshrMisses::total      1372291                       # number of demand (read+write) MSHR misses (Count)
board.cache_hierarchy.l1d-cache-0.overallMshrMisses::cache_hierarchy.l1d-cache-0.prefetcher       212977                       # number of overall MSHR misses (Count)
board.cache_hierarchy.l1d-cache-0.overallMshrMisses::processor.o30.core.data      1564669                       # number of overall MSHR misses (Count)
board.cache_hierarchy.l1d-cache-0.overallMshrMisses::total      1777646                       # number of overall MSHR misses (Count)
board.cache_hierarchy.l1d-cache-0.overallMshrUncacheable::processor.o30.core.data       426403                       # number of overall MSHR uncacheable misses (Count)
board.cache_hierarchy.l1d-cache-0.overallMshrUncacheable::total       426403                       # number of overall MSHR uncacheable misses (Count)
board.cache_hierarchy.l1d-cache-0.demandMshrMissLatency::processor.o30.core.data  18082048591                       # number of demand (read+write) MSHR miss ticks (Tick)
board.cache_hierarchy.l1d-cache-0.demandMshrMissLatency::total  18082048591                       # number of demand (read+write) MSHR miss ticks (Tick)
board.cache_hierarchy.l1d-cache-0.overallMshrMissLatency::cache_hierarchy.l1d-cache-0.prefetcher  10150939479                       # number of overall MSHR miss ticks (Tick)
board.cache_hierarchy.l1d-cache-0.overallMshrMissLatency::processor.o30.core.data  20026681678                       # number of overall MSHR miss ticks (Tick)
board.cache_hierarchy.l1d-cache-0.overallMshrMissLatency::total  30177621157                       # number of overall MSHR miss ticks (Tick)
board.cache_hierarchy.l1d-cache-0.overallMshrUncacheableLatency::processor.o30.core.data  30325793184                       # number of overall MSHR uncacheable ticks (Tick)
board.cache_hierarchy.l1d-cache-0.overallMshrUncacheableLatency::total  30325793184                       # number of overall MSHR uncacheable ticks (Tick)
board.cache_hierarchy.l1d-cache-0.demandMshrMissRate::processor.o30.core.data     0.005270                       # mshr miss ratio for demand accesses (Ratio)
board.cache_hierarchy.l1d-cache-0.demandMshrMissRate::total     0.005270                       # mshr miss ratio for demand accesses (Ratio)
board.cache_hierarchy.l1d-cache-0.overallMshrMissRate::cache_hierarchy.l1d-cache-0.prefetcher          inf                       # mshr miss ratio for overall accesses (Ratio)
board.cache_hierarchy.l1d-cache-0.overallMshrMissRate::processor.o30.core.data     0.005976                       # mshr miss ratio for overall accesses (Ratio)
board.cache_hierarchy.l1d-cache-0.overallMshrMissRate::total     0.006789                       # mshr miss ratio for overall accesses (Ratio)
board.cache_hierarchy.l1d-cache-0.demandAvgMshrMissLatency::processor.o30.core.data 13176.540975                       # average overall mshr miss latency ((Tick/Count))
board.cache_hierarchy.l1d-cache-0.demandAvgMshrMissLatency::total 13176.540975                       # average overall mshr miss latency ((Tick/Count))
board.cache_hierarchy.l1d-cache-0.overallAvgMshrMissLatency::cache_hierarchy.l1d-cache-0.prefetcher 47662.139475                       # average overall mshr miss latency ((Tick/Count))
board.cache_hierarchy.l1d-cache-0.overallAvgMshrMissLatency::processor.o30.core.data 12799.308785                       # average overall mshr miss latency ((Tick/Count))
board.cache_hierarchy.l1d-cache-0.overallAvgMshrMissLatency::total 16976.170259                       # average overall mshr miss latency ((Tick/Count))
board.cache_hierarchy.l1d-cache-0.overallAvgMshrUncacheableLatency::processor.o30.core.data 71120.027730                       # average overall mshr uncacheable latency ((Tick/Count))
board.cache_hierarchy.l1d-cache-0.overallAvgMshrUncacheableLatency::total 71120.027730                       # average overall mshr uncacheable latency ((Tick/Count))
board.cache_hierarchy.l1d-cache-0.replacements       421850                       # number of replacements (Count)
board.cache_hierarchy.l1d-cache-0.HardPFReq.mshrMisses::cache_hierarchy.l1d-cache-0.prefetcher       212977                       # number of HardPFReq MSHR misses (Count)
board.cache_hierarchy.l1d-cache-0.HardPFReq.mshrMisses::total       212977                       # number of HardPFReq MSHR misses (Count)
board.cache_hierarchy.l1d-cache-0.HardPFReq.mshrMissLatency::cache_hierarchy.l1d-cache-0.prefetcher  10150939479                       # number of HardPFReq MSHR miss ticks (Tick)
board.cache_hierarchy.l1d-cache-0.HardPFReq.mshrMissLatency::total  10150939479                       # number of HardPFReq MSHR miss ticks (Tick)
board.cache_hierarchy.l1d-cache-0.HardPFReq.mshrMissRate::cache_hierarchy.l1d-cache-0.prefetcher          inf                       # mshr miss rate for HardPFReq accesses (Ratio)
board.cache_hierarchy.l1d-cache-0.HardPFReq.mshrMissRate::total          inf                       # mshr miss rate for HardPFReq accesses (Ratio)
board.cache_hierarchy.l1d-cache-0.HardPFReq.avgMshrMissLatency::cache_hierarchy.l1d-cache-0.prefetcher 47662.139475                       # average HardPFReq mshr miss latency ((Tick/Count))
board.cache_hierarchy.l1d-cache-0.HardPFReq.avgMshrMissLatency::total 47662.139475                       # average HardPFReq mshr miss latency ((Tick/Count))
board.cache_hierarchy.l1d-cache-0.LoadLockedReq.hits::processor.o30.core.data      1215593                       # number of LoadLockedReq hits (Count)
board.cache_hierarchy.l1d-cache-0.LoadLockedReq.hits::total      1215593                       # number of LoadLockedReq hits (Count)
board.cache_hierarchy.l1d-cache-0.LoadLockedReq.misses::processor.o30.core.data       199771                       # number of LoadLockedReq misses (Count)
board.cache_hierarchy.l1d-cache-0.LoadLockedReq.misses::total       199771                       # number of LoadLockedReq misses (Count)
board.cache_hierarchy.l1d-cache-0.LoadLockedReq.missLatency::processor.o30.core.data   2091059514                       # number of LoadLockedReq miss ticks (Tick)
board.cache_hierarchy.l1d-cache-0.LoadLockedReq.missLatency::total   2091059514                       # number of LoadLockedReq miss ticks (Tick)
board.cache_hierarchy.l1d-cache-0.LoadLockedReq.accesses::processor.o30.core.data      1415364                       # number of LoadLockedReq accesses(hits+misses) (Count)
board.cache_hierarchy.l1d-cache-0.LoadLockedReq.accesses::total      1415364                       # number of LoadLockedReq accesses(hits+misses) (Count)
board.cache_hierarchy.l1d-cache-0.LoadLockedReq.missRate::processor.o30.core.data     0.141145                       # miss rate for LoadLockedReq accesses (Ratio)
board.cache_hierarchy.l1d-cache-0.LoadLockedReq.missRate::total     0.141145                       # miss rate for LoadLockedReq accesses (Ratio)
board.cache_hierarchy.l1d-cache-0.LoadLockedReq.avgMissLatency::processor.o30.core.data 10467.282609                       # average LoadLockedReq miss latency ((Tick/Count))
board.cache_hierarchy.l1d-cache-0.LoadLockedReq.avgMissLatency::total 10467.282609                       # average LoadLockedReq miss latency ((Tick/Count))
board.cache_hierarchy.l1d-cache-0.LoadLockedReq.mshrHits::processor.o30.core.data       198239                       # number of LoadLockedReq MSHR hits (Count)
board.cache_hierarchy.l1d-cache-0.LoadLockedReq.mshrHits::total       198239                       # number of LoadLockedReq MSHR hits (Count)
board.cache_hierarchy.l1d-cache-0.LoadLockedReq.mshrMisses::processor.o30.core.data         1532                       # number of LoadLockedReq MSHR misses (Count)
board.cache_hierarchy.l1d-cache-0.LoadLockedReq.mshrMisses::total         1532                       # number of LoadLockedReq MSHR misses (Count)
board.cache_hierarchy.l1d-cache-0.LoadLockedReq.mshrMissLatency::processor.o30.core.data     22472172                       # number of LoadLockedReq MSHR miss ticks (Tick)
board.cache_hierarchy.l1d-cache-0.LoadLockedReq.mshrMissLatency::total     22472172                       # number of LoadLockedReq MSHR miss ticks (Tick)
board.cache_hierarchy.l1d-cache-0.LoadLockedReq.mshrMissRate::processor.o30.core.data     0.001082                       # mshr miss rate for LoadLockedReq accesses (Ratio)
board.cache_hierarchy.l1d-cache-0.LoadLockedReq.mshrMissRate::total     0.001082                       # mshr miss rate for LoadLockedReq accesses (Ratio)
board.cache_hierarchy.l1d-cache-0.LoadLockedReq.avgMshrMissLatency::processor.o30.core.data 14668.519582                       # average LoadLockedReq mshr miss latency ((Tick/Count))
board.cache_hierarchy.l1d-cache-0.LoadLockedReq.avgMshrMissLatency::total 14668.519582                       # average LoadLockedReq mshr miss latency ((Tick/Count))
board.cache_hierarchy.l1d-cache-0.ReadReq.hits::processor.o30.core.data    142641440                       # number of ReadReq hits (Count)
board.cache_hierarchy.l1d-cache-0.ReadReq.hits::total    142641440                       # number of ReadReq hits (Count)
board.cache_hierarchy.l1d-cache-0.ReadReq.misses::processor.o30.core.data      1009959                       # number of ReadReq misses (Count)
board.cache_hierarchy.l1d-cache-0.ReadReq.misses::total      1009959                       # number of ReadReq misses (Count)
board.cache_hierarchy.l1d-cache-0.ReadReq.missLatency::processor.o30.core.data  10051028577                       # number of ReadReq miss ticks (Tick)
board.cache_hierarchy.l1d-cache-0.ReadReq.missLatency::total  10051028577                       # number of ReadReq miss ticks (Tick)
board.cache_hierarchy.l1d-cache-0.ReadReq.accesses::processor.o30.core.data    143651399                       # number of ReadReq accesses(hits+misses) (Count)
board.cache_hierarchy.l1d-cache-0.ReadReq.accesses::total    143651399                       # number of ReadReq accesses(hits+misses) (Count)
board.cache_hierarchy.l1d-cache-0.ReadReq.missRate::processor.o30.core.data     0.007031                       # miss rate for ReadReq accesses (Ratio)
board.cache_hierarchy.l1d-cache-0.ReadReq.missRate::total     0.007031                       # miss rate for ReadReq accesses (Ratio)
board.cache_hierarchy.l1d-cache-0.ReadReq.avgMissLatency::processor.o30.core.data  9951.917431                       # average ReadReq miss latency ((Tick/Count))
board.cache_hierarchy.l1d-cache-0.ReadReq.avgMissLatency::total  9951.917431                       # average ReadReq miss latency ((Tick/Count))
board.cache_hierarchy.l1d-cache-0.ReadReq.mshrHits::processor.o30.core.data       581635                       # number of ReadReq MSHR hits (Count)
board.cache_hierarchy.l1d-cache-0.ReadReq.mshrHits::total       581635                       # number of ReadReq MSHR hits (Count)
board.cache_hierarchy.l1d-cache-0.ReadReq.mshrMisses::processor.o30.core.data       428324                       # number of ReadReq MSHR misses (Count)
board.cache_hierarchy.l1d-cache-0.ReadReq.mshrMisses::total       428324                       # number of ReadReq MSHR misses (Count)
board.cache_hierarchy.l1d-cache-0.ReadReq.mshrUncacheable::processor.o30.core.data       326169                       # number of ReadReq MSHR uncacheable (Count)
board.cache_hierarchy.l1d-cache-0.ReadReq.mshrUncacheable::total       326169                       # number of ReadReq MSHR uncacheable (Count)
board.cache_hierarchy.l1d-cache-0.ReadReq.mshrMissLatency::processor.o30.core.data   4722132474                       # number of ReadReq MSHR miss ticks (Tick)
board.cache_hierarchy.l1d-cache-0.ReadReq.mshrMissLatency::total   4722132474                       # number of ReadReq MSHR miss ticks (Tick)
board.cache_hierarchy.l1d-cache-0.ReadReq.mshrUncacheableLatency::processor.o30.core.data  30325793184                       # number of ReadReq MSHR uncacheable ticks (Tick)
board.cache_hierarchy.l1d-cache-0.ReadReq.mshrUncacheableLatency::total  30325793184                       # number of ReadReq MSHR uncacheable ticks (Tick)
board.cache_hierarchy.l1d-cache-0.ReadReq.mshrMissRate::processor.o30.core.data     0.002982                       # mshr miss rate for ReadReq accesses (Ratio)
board.cache_hierarchy.l1d-cache-0.ReadReq.mshrMissRate::total     0.002982                       # mshr miss rate for ReadReq accesses (Ratio)
board.cache_hierarchy.l1d-cache-0.ReadReq.avgMshrMissLatency::processor.o30.core.data 11024.674018                       # average ReadReq mshr miss latency ((Tick/Count))
board.cache_hierarchy.l1d-cache-0.ReadReq.avgMshrMissLatency::total 11024.674018                       # average ReadReq mshr miss latency ((Tick/Count))
board.cache_hierarchy.l1d-cache-0.ReadReq.avgMshrUncacheableLatency::processor.o30.core.data 92975.706410                       # average ReadReq mshr uncacheable latency ((Tick/Count))
board.cache_hierarchy.l1d-cache-0.ReadReq.avgMshrUncacheableLatency::total 92975.706410                       # average ReadReq mshr uncacheable latency ((Tick/Count))
board.cache_hierarchy.l1d-cache-0.SoftPFExReq.hits::processor.o30.core.data      1208089                       # number of SoftPFExReq hits (Count)
board.cache_hierarchy.l1d-cache-0.SoftPFExReq.hits::total      1208089                       # number of SoftPFExReq hits (Count)
board.cache_hierarchy.l1d-cache-0.SoftPFExReq.misses::processor.o30.core.data       198200                       # number of SoftPFExReq misses (Count)
board.cache_hierarchy.l1d-cache-0.SoftPFExReq.misses::total       198200                       # number of SoftPFExReq misses (Count)
board.cache_hierarchy.l1d-cache-0.SoftPFExReq.accesses::processor.o30.core.data      1406289                       # number of SoftPFExReq accesses(hits+misses) (Count)
board.cache_hierarchy.l1d-cache-0.SoftPFExReq.accesses::total      1406289                       # number of SoftPFExReq accesses(hits+misses) (Count)
board.cache_hierarchy.l1d-cache-0.SoftPFExReq.missRate::processor.o30.core.data     0.140938                       # miss rate for SoftPFExReq accesses (Ratio)
board.cache_hierarchy.l1d-cache-0.SoftPFExReq.missRate::total     0.140938                       # miss rate for SoftPFExReq accesses (Ratio)
board.cache_hierarchy.l1d-cache-0.SoftPFExReq.mshrMisses::processor.o30.core.data       192357                       # number of SoftPFExReq MSHR misses (Count)
board.cache_hierarchy.l1d-cache-0.SoftPFExReq.mshrMisses::total       192357                       # number of SoftPFExReq MSHR misses (Count)
board.cache_hierarchy.l1d-cache-0.SoftPFExReq.mshrMissLatency::processor.o30.core.data   1943639748                       # number of SoftPFExReq MSHR miss ticks (Tick)
board.cache_hierarchy.l1d-cache-0.SoftPFExReq.mshrMissLatency::total   1943639748                       # number of SoftPFExReq MSHR miss ticks (Tick)
board.cache_hierarchy.l1d-cache-0.SoftPFExReq.mshrMissRate::processor.o30.core.data     0.136783                       # mshr miss rate for SoftPFExReq accesses (Ratio)
board.cache_hierarchy.l1d-cache-0.SoftPFExReq.mshrMissRate::total     0.136783                       # mshr miss rate for SoftPFExReq accesses (Ratio)
board.cache_hierarchy.l1d-cache-0.SoftPFExReq.avgMshrMissLatency::processor.o30.core.data 10104.335938                       # average SoftPFExReq mshr miss latency ((Tick/Count))
board.cache_hierarchy.l1d-cache-0.SoftPFExReq.avgMshrMissLatency::total 10104.335938                       # average SoftPFExReq mshr miss latency ((Tick/Count))
board.cache_hierarchy.l1d-cache-0.SoftPFReq.hits::processor.o30.core.data         6318                       # number of SoftPFReq hits (Count)
board.cache_hierarchy.l1d-cache-0.SoftPFReq.hits::total         6318                       # number of SoftPFReq hits (Count)
board.cache_hierarchy.l1d-cache-0.SoftPFReq.misses::processor.o30.core.data           21                       # number of SoftPFReq misses (Count)
board.cache_hierarchy.l1d-cache-0.SoftPFReq.misses::total           21                       # number of SoftPFReq misses (Count)
board.cache_hierarchy.l1d-cache-0.SoftPFReq.accesses::processor.o30.core.data         6339                       # number of SoftPFReq accesses(hits+misses) (Count)
board.cache_hierarchy.l1d-cache-0.SoftPFReq.accesses::total         6339                       # number of SoftPFReq accesses(hits+misses) (Count)
board.cache_hierarchy.l1d-cache-0.SoftPFReq.missRate::processor.o30.core.data     0.003313                       # miss rate for SoftPFReq accesses (Ratio)
board.cache_hierarchy.l1d-cache-0.SoftPFReq.missRate::total     0.003313                       # miss rate for SoftPFReq accesses (Ratio)
board.cache_hierarchy.l1d-cache-0.SoftPFReq.mshrMisses::processor.o30.core.data           21                       # number of SoftPFReq MSHR misses (Count)
board.cache_hierarchy.l1d-cache-0.SoftPFReq.mshrMisses::total           21                       # number of SoftPFReq MSHR misses (Count)
board.cache_hierarchy.l1d-cache-0.SoftPFReq.mshrMissLatency::processor.o30.core.data       993339                       # number of SoftPFReq MSHR miss ticks (Tick)
board.cache_hierarchy.l1d-cache-0.SoftPFReq.mshrMissLatency::total       993339                       # number of SoftPFReq MSHR miss ticks (Tick)
board.cache_hierarchy.l1d-cache-0.SoftPFReq.mshrMissRate::processor.o30.core.data     0.003313                       # mshr miss rate for SoftPFReq accesses (Ratio)
board.cache_hierarchy.l1d-cache-0.SoftPFReq.mshrMissRate::total     0.003313                       # mshr miss rate for SoftPFReq accesses (Ratio)
board.cache_hierarchy.l1d-cache-0.SoftPFReq.avgMshrMissLatency::processor.o30.core.data 47301.857143                       # average SoftPFReq mshr miss latency ((Tick/Count))
board.cache_hierarchy.l1d-cache-0.SoftPFReq.avgMshrMissLatency::total 47301.857143                       # average SoftPFReq mshr miss latency ((Tick/Count))
board.cache_hierarchy.l1d-cache-0.StoreCondFailReq.missLatency::processor.o30.core.data      3245751                       # number of StoreCondFailReq miss ticks (Tick)
board.cache_hierarchy.l1d-cache-0.StoreCondFailReq.missLatency::total      3245751                       # number of StoreCondFailReq miss ticks (Tick)
board.cache_hierarchy.l1d-cache-0.StoreCondFailReq.avgMissLatency::processor.o30.core.data          inf                       # average StoreCondFailReq miss latency ((Tick/Count))
board.cache_hierarchy.l1d-cache-0.StoreCondFailReq.avgMissLatency::total          inf                       # average StoreCondFailReq miss latency ((Tick/Count))
board.cache_hierarchy.l1d-cache-0.StoreCondFailReq.mshrMissLatency::processor.o30.core.data      3141522                       # number of StoreCondFailReq MSHR miss ticks (Tick)
board.cache_hierarchy.l1d-cache-0.StoreCondFailReq.mshrMissLatency::total      3141522                       # number of StoreCondFailReq MSHR miss ticks (Tick)
board.cache_hierarchy.l1d-cache-0.StoreCondFailReq.avgMshrMissLatency::processor.o30.core.data          inf                       # average StoreCondFailReq mshr miss latency ((Tick/Count))
board.cache_hierarchy.l1d-cache-0.StoreCondFailReq.avgMshrMissLatency::total          inf                       # average StoreCondFailReq mshr miss latency ((Tick/Count))
board.cache_hierarchy.l1d-cache-0.StoreCondReq.hits::processor.o30.core.data      1190538                       # number of StoreCondReq hits (Count)
board.cache_hierarchy.l1d-cache-0.StoreCondReq.hits::total      1190538                       # number of StoreCondReq hits (Count)
board.cache_hierarchy.l1d-cache-0.StoreCondReq.misses::processor.o30.core.data         6092                       # number of StoreCondReq misses (Count)
board.cache_hierarchy.l1d-cache-0.StoreCondReq.misses::total         6092                       # number of StoreCondReq misses (Count)
board.cache_hierarchy.l1d-cache-0.StoreCondReq.missLatency::processor.o30.core.data     55035576                       # number of StoreCondReq miss ticks (Tick)
board.cache_hierarchy.l1d-cache-0.StoreCondReq.missLatency::total     55035576                       # number of StoreCondReq miss ticks (Tick)
board.cache_hierarchy.l1d-cache-0.StoreCondReq.accesses::processor.o30.core.data      1196630                       # number of StoreCondReq accesses(hits+misses) (Count)
board.cache_hierarchy.l1d-cache-0.StoreCondReq.accesses::total      1196630                       # number of StoreCondReq accesses(hits+misses) (Count)
board.cache_hierarchy.l1d-cache-0.StoreCondReq.missRate::processor.o30.core.data     0.005091                       # miss rate for StoreCondReq accesses (Ratio)
board.cache_hierarchy.l1d-cache-0.StoreCondReq.missRate::total     0.005091                       # miss rate for StoreCondReq accesses (Ratio)
board.cache_hierarchy.l1d-cache-0.StoreCondReq.avgMissLatency::processor.o30.core.data  9034.073539                       # average StoreCondReq miss latency ((Tick/Count))
board.cache_hierarchy.l1d-cache-0.StoreCondReq.avgMissLatency::total  9034.073539                       # average StoreCondReq miss latency ((Tick/Count))
board.cache_hierarchy.l1d-cache-0.StoreCondReq.mshrHits::processor.o30.core.data           15                       # number of StoreCondReq MSHR hits (Count)
board.cache_hierarchy.l1d-cache-0.StoreCondReq.mshrHits::total           15                       # number of StoreCondReq MSHR hits (Count)
board.cache_hierarchy.l1d-cache-0.StoreCondReq.mshrMisses::processor.o30.core.data         5472                       # number of StoreCondReq MSHR misses (Count)
board.cache_hierarchy.l1d-cache-0.StoreCondReq.mshrMisses::total         5472                       # number of StoreCondReq MSHR misses (Count)
board.cache_hierarchy.l1d-cache-0.StoreCondReq.mshrMissLatency::processor.o30.core.data     53174772                       # number of StoreCondReq MSHR miss ticks (Tick)
board.cache_hierarchy.l1d-cache-0.StoreCondReq.mshrMissLatency::total     53174772                       # number of StoreCondReq MSHR miss ticks (Tick)
board.cache_hierarchy.l1d-cache-0.StoreCondReq.mshrMissRate::processor.o30.core.data     0.004573                       # mshr miss rate for StoreCondReq accesses (Ratio)
board.cache_hierarchy.l1d-cache-0.StoreCondReq.mshrMissRate::total     0.004573                       # mshr miss rate for StoreCondReq accesses (Ratio)
board.cache_hierarchy.l1d-cache-0.StoreCondReq.avgMshrMissLatency::processor.o30.core.data  9717.611842                       # average StoreCondReq mshr miss latency ((Tick/Count))
board.cache_hierarchy.l1d-cache-0.StoreCondReq.avgMshrMissLatency::total  9717.611842                       # average StoreCondReq mshr miss latency ((Tick/Count))
board.cache_hierarchy.l1d-cache-0.SwapReq.hits::processor.o30.core.data            4                       # number of SwapReq hits (Count)
board.cache_hierarchy.l1d-cache-0.SwapReq.hits::total            4                       # number of SwapReq hits (Count)
board.cache_hierarchy.l1d-cache-0.SwapReq.misses::processor.o30.core.data           12                       # number of SwapReq misses (Count)
board.cache_hierarchy.l1d-cache-0.SwapReq.misses::total           12                       # number of SwapReq misses (Count)
board.cache_hierarchy.l1d-cache-0.SwapReq.missLatency::processor.o30.core.data       186480                       # number of SwapReq miss ticks (Tick)
board.cache_hierarchy.l1d-cache-0.SwapReq.missLatency::total       186480                       # number of SwapReq miss ticks (Tick)
board.cache_hierarchy.l1d-cache-0.SwapReq.accesses::processor.o30.core.data           16                       # number of SwapReq accesses(hits+misses) (Count)
board.cache_hierarchy.l1d-cache-0.SwapReq.accesses::total           16                       # number of SwapReq accesses(hits+misses) (Count)
board.cache_hierarchy.l1d-cache-0.SwapReq.missRate::processor.o30.core.data     0.750000                       # miss rate for SwapReq accesses (Ratio)
board.cache_hierarchy.l1d-cache-0.SwapReq.missRate::total     0.750000                       # miss rate for SwapReq accesses (Ratio)
board.cache_hierarchy.l1d-cache-0.SwapReq.avgMissLatency::processor.o30.core.data        15540                       # average SwapReq miss latency ((Tick/Count))
board.cache_hierarchy.l1d-cache-0.SwapReq.avgMissLatency::total        15540                       # average SwapReq miss latency ((Tick/Count))
board.cache_hierarchy.l1d-cache-0.SwapReq.mshrMisses::processor.o30.core.data           12                       # number of SwapReq MSHR misses (Count)
board.cache_hierarchy.l1d-cache-0.SwapReq.mshrMisses::total           12                       # number of SwapReq MSHR misses (Count)
board.cache_hierarchy.l1d-cache-0.SwapReq.mshrMissLatency::processor.o30.core.data       182484                       # number of SwapReq MSHR miss ticks (Tick)
board.cache_hierarchy.l1d-cache-0.SwapReq.mshrMissLatency::total       182484                       # number of SwapReq MSHR miss ticks (Tick)
board.cache_hierarchy.l1d-cache-0.SwapReq.mshrMissRate::processor.o30.core.data     0.750000                       # mshr miss rate for SwapReq accesses (Ratio)
board.cache_hierarchy.l1d-cache-0.SwapReq.mshrMissRate::total     0.750000                       # mshr miss rate for SwapReq accesses (Ratio)
board.cache_hierarchy.l1d-cache-0.SwapReq.avgMshrMissLatency::processor.o30.core.data        15207                       # average SwapReq mshr miss latency ((Tick/Count))
board.cache_hierarchy.l1d-cache-0.SwapReq.avgMshrMissLatency::total        15207                       # average SwapReq mshr miss latency ((Tick/Count))
board.cache_hierarchy.l1d-cache-0.WriteLineReq.hits::processor.o30.core.data           21                       # number of WriteLineReq hits (Count)
board.cache_hierarchy.l1d-cache-0.WriteLineReq.hits::total           21                       # number of WriteLineReq hits (Count)
board.cache_hierarchy.l1d-cache-0.WriteLineReq.misses::processor.o30.core.data       401367                       # number of WriteLineReq misses (Count)
board.cache_hierarchy.l1d-cache-0.WriteLineReq.misses::total       401367                       # number of WriteLineReq misses (Count)
board.cache_hierarchy.l1d-cache-0.WriteLineReq.missLatency::processor.o30.core.data  15576859288                       # number of WriteLineReq miss ticks (Tick)
board.cache_hierarchy.l1d-cache-0.WriteLineReq.missLatency::total  15576859288                       # number of WriteLineReq miss ticks (Tick)
board.cache_hierarchy.l1d-cache-0.WriteLineReq.accesses::processor.o30.core.data       401388                       # number of WriteLineReq accesses(hits+misses) (Count)
board.cache_hierarchy.l1d-cache-0.WriteLineReq.accesses::total       401388                       # number of WriteLineReq accesses(hits+misses) (Count)
board.cache_hierarchy.l1d-cache-0.WriteLineReq.missRate::processor.o30.core.data     0.999948                       # miss rate for WriteLineReq accesses (Ratio)
board.cache_hierarchy.l1d-cache-0.WriteLineReq.missRate::total     0.999948                       # miss rate for WriteLineReq accesses (Ratio)
board.cache_hierarchy.l1d-cache-0.WriteLineReq.avgMissLatency::processor.o30.core.data 38809.516697                       # average WriteLineReq miss latency ((Tick/Count))
board.cache_hierarchy.l1d-cache-0.WriteLineReq.avgMissLatency::total 38809.516697                       # average WriteLineReq miss latency ((Tick/Count))
board.cache_hierarchy.l1d-cache-0.WriteLineReq.mshrHits::processor.o30.core.data        80731                       # number of WriteLineReq MSHR hits (Count)
board.cache_hierarchy.l1d-cache-0.WriteLineReq.mshrHits::total        80731                       # number of WriteLineReq MSHR hits (Count)
board.cache_hierarchy.l1d-cache-0.WriteLineReq.mshrMisses::processor.o30.core.data       320636                       # number of WriteLineReq MSHR misses (Count)
board.cache_hierarchy.l1d-cache-0.WriteLineReq.mshrMisses::total       320636                       # number of WriteLineReq MSHR misses (Count)
board.cache_hierarchy.l1d-cache-0.WriteLineReq.mshrMissLatency::processor.o30.core.data   6484499416                       # number of WriteLineReq MSHR miss ticks (Tick)
board.cache_hierarchy.l1d-cache-0.WriteLineReq.mshrMissLatency::total   6484499416                       # number of WriteLineReq MSHR miss ticks (Tick)
board.cache_hierarchy.l1d-cache-0.WriteLineReq.mshrMissRate::processor.o30.core.data     0.798818                       # mshr miss rate for WriteLineReq accesses (Ratio)
board.cache_hierarchy.l1d-cache-0.WriteLineReq.mshrMissRate::total     0.798818                       # mshr miss rate for WriteLineReq accesses (Ratio)
board.cache_hierarchy.l1d-cache-0.WriteLineReq.avgMshrMissLatency::processor.o30.core.data 20223.865742                       # average WriteLineReq mshr miss latency ((Tick/Count))
board.cache_hierarchy.l1d-cache-0.WriteLineReq.avgMshrMissLatency::total 20223.865742                       # average WriteLineReq mshr miss latency ((Tick/Count))
board.cache_hierarchy.l1d-cache-0.WriteReq.hits::processor.o30.core.data    114268024                       # number of WriteReq hits (Count)
board.cache_hierarchy.l1d-cache-0.WriteReq.hits::total    114268024                       # number of WriteReq hits (Count)
board.cache_hierarchy.l1d-cache-0.WriteReq.misses::processor.o30.core.data      2095590                       # number of WriteReq misses (Count)
board.cache_hierarchy.l1d-cache-0.WriteReq.misses::total      2095590                       # number of WriteReq misses (Count)
board.cache_hierarchy.l1d-cache-0.WriteReq.missLatency::processor.o30.core.data  22310254746                       # number of WriteReq miss ticks (Tick)
board.cache_hierarchy.l1d-cache-0.WriteReq.missLatency::total  22310254746                       # number of WriteReq miss ticks (Tick)
board.cache_hierarchy.l1d-cache-0.WriteReq.accesses::processor.o30.core.data    116363614                       # number of WriteReq accesses(hits+misses) (Count)
board.cache_hierarchy.l1d-cache-0.WriteReq.accesses::total    116363614                       # number of WriteReq accesses(hits+misses) (Count)
board.cache_hierarchy.l1d-cache-0.WriteReq.missRate::processor.o30.core.data     0.018009                       # miss rate for WriteReq accesses (Ratio)
board.cache_hierarchy.l1d-cache-0.WriteReq.missRate::total     0.018009                       # miss rate for WriteReq accesses (Ratio)
board.cache_hierarchy.l1d-cache-0.WriteReq.avgMissLatency::processor.o30.core.data 10646.288036                       # average WriteReq miss latency ((Tick/Count))
board.cache_hierarchy.l1d-cache-0.WriteReq.avgMissLatency::total 10646.288036                       # average WriteReq miss latency ((Tick/Count))
board.cache_hierarchy.l1d-cache-0.WriteReq.mshrHits::processor.o30.core.data      1472259                       # number of WriteReq MSHR hits (Count)
board.cache_hierarchy.l1d-cache-0.WriteReq.mshrHits::total      1472259                       # number of WriteReq MSHR hits (Count)
board.cache_hierarchy.l1d-cache-0.WriteReq.mshrMisses::processor.o30.core.data       623331                       # number of WriteReq MSHR misses (Count)
board.cache_hierarchy.l1d-cache-0.WriteReq.mshrMisses::total       623331                       # number of WriteReq MSHR misses (Count)
board.cache_hierarchy.l1d-cache-0.WriteReq.mshrUncacheable::processor.o30.core.data       100234                       # number of WriteReq MSHR uncacheable (Count)
board.cache_hierarchy.l1d-cache-0.WriteReq.mshrUncacheable::total       100234                       # number of WriteReq MSHR uncacheable (Count)
board.cache_hierarchy.l1d-cache-0.WriteReq.mshrMissLatency::processor.o30.core.data   6875416701                       # number of WriteReq MSHR miss ticks (Tick)
board.cache_hierarchy.l1d-cache-0.WriteReq.mshrMissLatency::total   6875416701                       # number of WriteReq MSHR miss ticks (Tick)
board.cache_hierarchy.l1d-cache-0.WriteReq.mshrMissRate::processor.o30.core.data     0.005357                       # mshr miss rate for WriteReq accesses (Ratio)
board.cache_hierarchy.l1d-cache-0.WriteReq.mshrMissRate::total     0.005357                       # mshr miss rate for WriteReq accesses (Ratio)
board.cache_hierarchy.l1d-cache-0.WriteReq.avgMshrMissLatency::processor.o30.core.data 11030.121558                       # average WriteReq mshr miss latency ((Tick/Count))
board.cache_hierarchy.l1d-cache-0.WriteReq.avgMshrMissLatency::total 11030.121558                       # average WriteReq mshr miss latency ((Tick/Count))
board.cache_hierarchy.l1d-cache-0.power_state.pwrStateResidencyTicks::UNDEFINED 400732922989021                       # Cumulative time (in ticks) in various power states (Tick)
board.cache_hierarchy.l1d-cache-0.prefetcher.demandMshrMisses      1372291                       # demands not covered by prefetchs (Count)
board.cache_hierarchy.l1d-cache-0.prefetcher.pfIssued       700930                       # number of hwpf issued (Count)
board.cache_hierarchy.l1d-cache-0.prefetcher.pfUnused         1609                       # number of HardPF blocks evicted w/o reference (Count)
board.cache_hierarchy.l1d-cache-0.prefetcher.pfUseful       130174                       # number of useful prefetch (Count)
board.cache_hierarchy.l1d-cache-0.prefetcher.pfUsefulButMiss          176                       # number of hit on prefetch but cache block is not in an usable state (Count)
board.cache_hierarchy.l1d-cache-0.prefetcher.accuracy     0.185716                       # accuracy of the prefetcher (Count)
board.cache_hierarchy.l1d-cache-0.prefetcher.coverage     0.086640                       # coverage brought by this prefetcher (Count)
board.cache_hierarchy.l1d-cache-0.prefetcher.pfHitInCache       485547                       # number of prefetches hitting in cache (Count)
board.cache_hierarchy.l1d-cache-0.prefetcher.pfHitInMSHR         2406                       # number of prefetches hitting in a MSHR (Count)
board.cache_hierarchy.l1d-cache-0.prefetcher.pfHitInWB            0                       # number of prefetches hit in the Write Buffer (Count)
board.cache_hierarchy.l1d-cache-0.prefetcher.pfLate       487953                       # number of late prefetches (hitting in cache, MSHR or WB) (Count)
board.cache_hierarchy.l1d-cache-0.prefetcher.pfIdentified      2167347                       # number of prefetch candidates identified (Count)
board.cache_hierarchy.l1d-cache-0.prefetcher.pfBufferHit       762664                       # number of redundant prefetches already in prefetch queue (Count)
board.cache_hierarchy.l1d-cache-0.prefetcher.pfInCache            0                       # number of redundant prefetches already in cache/mshr dropped (Count)
board.cache_hierarchy.l1d-cache-0.prefetcher.pfRemovedDemand       388232                       # number of prefetches dropped due to a demand for the same address (Count)
board.cache_hierarchy.l1d-cache-0.prefetcher.pfRemovedFull            0                       # number of prefetches dropped due to prefetch queue size (Count)
board.cache_hierarchy.l1d-cache-0.prefetcher.pfSpanPage      2958505                       # number of prefetches that crossed the page (Count)
board.cache_hierarchy.l1d-cache-0.prefetcher.pfUsefulSpanPage         2382                       # number of prefetches that is useful and crossed the page (Count)
board.cache_hierarchy.l1d-cache-0.prefetcher.power_state.pwrStateResidencyTicks::UNDEFINED 400732922989021                       # Cumulative time (in ticks) in various power states (Tick)
board.cache_hierarchy.l1d-cache-0.tags.tagsInUse   956.713935                       # Average ticks per tags in use ((Tick/Count))
board.cache_hierarchy.l1d-cache-0.tags.totalRefs    264023806                       # Total number of references to valid blocks. (Count)
board.cache_hierarchy.l1d-cache-0.tags.sampledRefs      1082584                       # Sample count of references to valid blocks. (Count)
board.cache_hierarchy.l1d-cache-0.tags.avgRefs   243.882974                       # Average number of references to valid blocks. ((Count/Count))
board.cache_hierarchy.l1d-cache-0.tags.warmupTick            0                       # The tick when the warmup percentage was hit. (Tick)
board.cache_hierarchy.l1d-cache-0.tags.occupancies::cache_hierarchy.l1d-cache-0.prefetcher   163.992728                       # Average occupied blocks per tick, per requestor ((Count/Tick))
board.cache_hierarchy.l1d-cache-0.tags.occupancies::processor.atomic0.core.data     7.001734                       # Average occupied blocks per tick, per requestor ((Count/Tick))
board.cache_hierarchy.l1d-cache-0.tags.occupancies::processor.o30.core.data   785.719473                       # Average occupied blocks per tick, per requestor ((Count/Tick))
board.cache_hierarchy.l1d-cache-0.tags.avgOccs::cache_hierarchy.l1d-cache-0.prefetcher     0.160149                       # Average percentage of cache occupancy ((Ratio/Tick))
board.cache_hierarchy.l1d-cache-0.tags.avgOccs::processor.atomic0.core.data     0.006838                       # Average percentage of cache occupancy ((Ratio/Tick))
board.cache_hierarchy.l1d-cache-0.tags.avgOccs::processor.o30.core.data     0.767304                       # Average percentage of cache occupancy ((Ratio/Tick))
board.cache_hierarchy.l1d-cache-0.tags.avgOccs::total     0.934291                       # Average percentage of cache occupancy ((Ratio/Tick))
board.cache_hierarchy.l1d-cache-0.tags.occupanciesTaskId::1022          162                       # Occupied blocks per task id (Count)
board.cache_hierarchy.l1d-cache-0.tags.occupanciesTaskId::1024          803                       # Occupied blocks per task id (Count)
board.cache_hierarchy.l1d-cache-0.tags.ageTaskId_1022::4          162                       # Occupied blocks per task id, per block age (Count)
board.cache_hierarchy.l1d-cache-0.tags.ageTaskId_1024::4          803                       # Occupied blocks per task id, per block age (Count)
board.cache_hierarchy.l1d-cache-0.tags.ratioOccsTaskId::1022     0.158203                       # Ratio of occupied blocks and all blocks, per task id (Ratio)
board.cache_hierarchy.l1d-cache-0.tags.ratioOccsTaskId::1024     0.784180                       # Ratio of occupied blocks and all blocks, per task id (Ratio)
board.cache_hierarchy.l1d-cache-0.tags.tagAccesses   2116610124                       # Number of tag accesses (Count)
board.cache_hierarchy.l1d-cache-0.tags.dataAccesses   2116610124                       # Number of data accesses (Count)
board.cache_hierarchy.l1d-cache-0.tags.power_state.pwrStateResidencyTicks::UNDEFINED 400732922989021                       # Cumulative time (in ticks) in various power states (Tick)
board.cache_hierarchy.l1d-cache-1.demandHits::processor.o31.core.data    220048643                       # number of demand (read+write) hits (Count)
board.cache_hierarchy.l1d-cache-1.demandHits::total    220048643                       # number of demand (read+write) hits (Count)
board.cache_hierarchy.l1d-cache-1.overallHits::processor.o31.core.data    220945213                       # number of overall hits (Count)
board.cache_hierarchy.l1d-cache-1.overallHits::total    220945213                       # number of overall hits (Count)
board.cache_hierarchy.l1d-cache-1.demandMisses::processor.o31.core.data      2172561                       # number of demand (read+write) misses (Count)
board.cache_hierarchy.l1d-cache-1.demandMisses::total      2172561                       # number of demand (read+write) misses (Count)
board.cache_hierarchy.l1d-cache-1.overallMisses::processor.o31.core.data      2369369                       # number of overall misses (Count)
board.cache_hierarchy.l1d-cache-1.overallMisses::total      2369369                       # number of overall misses (Count)
board.cache_hierarchy.l1d-cache-1.demandMissLatency::processor.o31.core.data  33591500994                       # number of demand (read+write) miss ticks (Tick)
board.cache_hierarchy.l1d-cache-1.demandMissLatency::total  33591500994                       # number of demand (read+write) miss ticks (Tick)
board.cache_hierarchy.l1d-cache-1.overallMissLatency::processor.o31.core.data  33591500994                       # number of overall miss ticks (Tick)
board.cache_hierarchy.l1d-cache-1.overallMissLatency::total  33591500994                       # number of overall miss ticks (Tick)
board.cache_hierarchy.l1d-cache-1.demandAccesses::processor.o31.core.data    222221204                       # number of demand (read+write) accesses (Count)
board.cache_hierarchy.l1d-cache-1.demandAccesses::total    222221204                       # number of demand (read+write) accesses (Count)
board.cache_hierarchy.l1d-cache-1.overallAccesses::processor.o31.core.data    223314582                       # number of overall (read+write) accesses (Count)
board.cache_hierarchy.l1d-cache-1.overallAccesses::total    223314582                       # number of overall (read+write) accesses (Count)
board.cache_hierarchy.l1d-cache-1.demandMissRate::processor.o31.core.data     0.009777                       # miss rate for demand accesses (Ratio)
board.cache_hierarchy.l1d-cache-1.demandMissRate::total     0.009777                       # miss rate for demand accesses (Ratio)
board.cache_hierarchy.l1d-cache-1.overallMissRate::processor.o31.core.data     0.010610                       # miss rate for overall accesses (Ratio)
board.cache_hierarchy.l1d-cache-1.overallMissRate::total     0.010610                       # miss rate for overall accesses (Ratio)
board.cache_hierarchy.l1d-cache-1.demandAvgMissLatency::processor.o31.core.data 15461.706711                       # average overall miss latency in ticks ((Tick/Count))
board.cache_hierarchy.l1d-cache-1.demandAvgMissLatency::total 15461.706711                       # average overall miss latency in ticks ((Tick/Count))
board.cache_hierarchy.l1d-cache-1.overallAvgMissLatency::processor.o31.core.data 14177.403770                       # average overall miss latency ((Tick/Count))
board.cache_hierarchy.l1d-cache-1.overallAvgMissLatency::total 14177.403770                       # average overall miss latency ((Tick/Count))
board.cache_hierarchy.l1d-cache-1.blockedCycles::no_mshrs      2189889                       # number of cycles access was blocked (Cycle)
board.cache_hierarchy.l1d-cache-1.blockedCycles::no_wbuffers       424026                       # number of cycles access was blocked (Cycle)
board.cache_hierarchy.l1d-cache-1.blockedCycles::no_targets          618                       # number of cycles access was blocked (Cycle)
board.cache_hierarchy.l1d-cache-1.blockedCauses::no_mshrs       258609                       # number of times access was blocked (Count)
board.cache_hierarchy.l1d-cache-1.blockedCauses::no_wbuffers        32062                       # number of times access was blocked (Count)
board.cache_hierarchy.l1d-cache-1.blockedCauses::no_targets            7                       # number of times access was blocked (Count)
board.cache_hierarchy.l1d-cache-1.avgBlocked::no_mshrs     8.467954                       # average number of cycles each access was blocked ((Cycle/Count))
board.cache_hierarchy.l1d-cache-1.avgBlocked::no_wbuffers    13.225189                       # average number of cycles each access was blocked ((Cycle/Count))
board.cache_hierarchy.l1d-cache-1.avgBlocked::no_targets    88.285714                       # average number of cycles each access was blocked ((Cycle/Count))
board.cache_hierarchy.l1d-cache-1.writebacks::writebacks       415485                       # number of writebacks (Count)
board.cache_hierarchy.l1d-cache-1.writebacks::total       415485                       # number of writebacks (Count)
board.cache_hierarchy.l1d-cache-1.demandMshrHits::processor.o31.core.data       779548                       # number of demand (read+write) MSHR hits (Count)
board.cache_hierarchy.l1d-cache-1.demandMshrHits::total       779548                       # number of demand (read+write) MSHR hits (Count)
board.cache_hierarchy.l1d-cache-1.overallMshrHits::processor.o31.core.data       779548                       # number of overall MSHR hits (Count)
board.cache_hierarchy.l1d-cache-1.overallMshrHits::total       779548                       # number of overall MSHR hits (Count)
board.cache_hierarchy.l1d-cache-1.demandMshrMisses::processor.o31.core.data      1393013                       # number of demand (read+write) MSHR misses (Count)
board.cache_hierarchy.l1d-cache-1.demandMshrMisses::total      1393013                       # number of demand (read+write) MSHR misses (Count)
board.cache_hierarchy.l1d-cache-1.overallMshrMisses::cache_hierarchy.l1d-cache-1.prefetcher       212111                       # number of overall MSHR misses (Count)
board.cache_hierarchy.l1d-cache-1.overallMshrMisses::processor.o31.core.data      1584105                       # number of overall MSHR misses (Count)
board.cache_hierarchy.l1d-cache-1.overallMshrMisses::total      1796216                       # number of overall MSHR misses (Count)
board.cache_hierarchy.l1d-cache-1.overallMshrUncacheable::processor.o31.core.data       425880                       # number of overall MSHR uncacheable misses (Count)
board.cache_hierarchy.l1d-cache-1.overallMshrUncacheable::total       425880                       # number of overall MSHR uncacheable misses (Count)
board.cache_hierarchy.l1d-cache-1.demandMshrMissLatency::processor.o31.core.data  17539293938                       # number of demand (read+write) MSHR miss ticks (Tick)
board.cache_hierarchy.l1d-cache-1.demandMshrMissLatency::total  17539293938                       # number of demand (read+write) MSHR miss ticks (Tick)
board.cache_hierarchy.l1d-cache-1.overallMshrMissLatency::cache_hierarchy.l1d-cache-1.prefetcher   9859370352                       # number of overall MSHR miss ticks (Tick)
board.cache_hierarchy.l1d-cache-1.overallMshrMissLatency::processor.o31.core.data  19473157805                       # number of overall MSHR miss ticks (Tick)
board.cache_hierarchy.l1d-cache-1.overallMshrMissLatency::total  29332528157                       # number of overall MSHR miss ticks (Tick)
board.cache_hierarchy.l1d-cache-1.overallMshrUncacheableLatency::processor.o31.core.data  30140480349                       # number of overall MSHR uncacheable ticks (Tick)
board.cache_hierarchy.l1d-cache-1.overallMshrUncacheableLatency::total  30140480349                       # number of overall MSHR uncacheable ticks (Tick)
board.cache_hierarchy.l1d-cache-1.demandMshrMissRate::processor.o31.core.data     0.006269                       # mshr miss ratio for demand accesses (Ratio)
board.cache_hierarchy.l1d-cache-1.demandMshrMissRate::total     0.006269                       # mshr miss ratio for demand accesses (Ratio)
board.cache_hierarchy.l1d-cache-1.overallMshrMissRate::cache_hierarchy.l1d-cache-1.prefetcher          inf                       # mshr miss ratio for overall accesses (Ratio)
board.cache_hierarchy.l1d-cache-1.overallMshrMissRate::processor.o31.core.data     0.007094                       # mshr miss ratio for overall accesses (Ratio)
board.cache_hierarchy.l1d-cache-1.overallMshrMissRate::total     0.008043                       # mshr miss ratio for overall accesses (Ratio)
board.cache_hierarchy.l1d-cache-1.demandAvgMshrMissLatency::processor.o31.core.data 12590.904707                       # average overall mshr miss latency ((Tick/Count))
board.cache_hierarchy.l1d-cache-1.demandAvgMshrMissLatency::total 12590.904707                       # average overall mshr miss latency ((Tick/Count))
board.cache_hierarchy.l1d-cache-1.overallAvgMshrMissLatency::cache_hierarchy.l1d-cache-1.prefetcher 46482.126585                       # average overall mshr miss latency ((Tick/Count))
board.cache_hierarchy.l1d-cache-1.overallAvgMshrMissLatency::processor.o31.core.data 12292.845364                       # average overall mshr miss latency ((Tick/Count))
board.cache_hierarchy.l1d-cache-1.overallAvgMshrMissLatency::total 16330.178641                       # average overall mshr miss latency ((Tick/Count))
board.cache_hierarchy.l1d-cache-1.overallAvgMshrUncacheableLatency::processor.o31.core.data 70772.237130                       # average overall mshr uncacheable latency ((Tick/Count))
board.cache_hierarchy.l1d-cache-1.overallAvgMshrUncacheableLatency::total 70772.237130                       # average overall mshr uncacheable latency ((Tick/Count))
board.cache_hierarchy.l1d-cache-1.replacements       418673                       # number of replacements (Count)
board.cache_hierarchy.l1d-cache-1.HardPFReq.mshrMisses::cache_hierarchy.l1d-cache-1.prefetcher       212111                       # number of HardPFReq MSHR misses (Count)
board.cache_hierarchy.l1d-cache-1.HardPFReq.mshrMisses::total       212111                       # number of HardPFReq MSHR misses (Count)
board.cache_hierarchy.l1d-cache-1.HardPFReq.mshrMissLatency::cache_hierarchy.l1d-cache-1.prefetcher   9859370352                       # number of HardPFReq MSHR miss ticks (Tick)
board.cache_hierarchy.l1d-cache-1.HardPFReq.mshrMissLatency::total   9859370352                       # number of HardPFReq MSHR miss ticks (Tick)
board.cache_hierarchy.l1d-cache-1.HardPFReq.mshrMissRate::cache_hierarchy.l1d-cache-1.prefetcher          inf                       # mshr miss rate for HardPFReq accesses (Ratio)
board.cache_hierarchy.l1d-cache-1.HardPFReq.mshrMissRate::total          inf                       # mshr miss rate for HardPFReq accesses (Ratio)
board.cache_hierarchy.l1d-cache-1.HardPFReq.avgMshrMissLatency::cache_hierarchy.l1d-cache-1.prefetcher 46482.126585                       # average HardPFReq mshr miss latency ((Tick/Count))
board.cache_hierarchy.l1d-cache-1.HardPFReq.avgMshrMissLatency::total 46482.126585                       # average HardPFReq mshr miss latency ((Tick/Count))
board.cache_hierarchy.l1d-cache-1.LoadLockedReq.hits::processor.o31.core.data       898406                       # number of LoadLockedReq hits (Count)
board.cache_hierarchy.l1d-cache-1.LoadLockedReq.hits::total       898406                       # number of LoadLockedReq hits (Count)
board.cache_hierarchy.l1d-cache-1.LoadLockedReq.misses::processor.o31.core.data       198523                       # number of LoadLockedReq misses (Count)
board.cache_hierarchy.l1d-cache-1.LoadLockedReq.misses::total       198523                       # number of LoadLockedReq misses (Count)
board.cache_hierarchy.l1d-cache-1.LoadLockedReq.missLatency::processor.o31.core.data   2078564022                       # number of LoadLockedReq miss ticks (Tick)
board.cache_hierarchy.l1d-cache-1.LoadLockedReq.missLatency::total   2078564022                       # number of LoadLockedReq miss ticks (Tick)
board.cache_hierarchy.l1d-cache-1.LoadLockedReq.accesses::processor.o31.core.data      1096929                       # number of LoadLockedReq accesses(hits+misses) (Count)
board.cache_hierarchy.l1d-cache-1.LoadLockedReq.accesses::total      1096929                       # number of LoadLockedReq accesses(hits+misses) (Count)
board.cache_hierarchy.l1d-cache-1.LoadLockedReq.missRate::processor.o31.core.data     0.180981                       # miss rate for LoadLockedReq accesses (Ratio)
board.cache_hierarchy.l1d-cache-1.LoadLockedReq.missRate::total     0.180981                       # miss rate for LoadLockedReq accesses (Ratio)
board.cache_hierarchy.l1d-cache-1.LoadLockedReq.avgMissLatency::processor.o31.core.data 10470.142109                       # average LoadLockedReq miss latency ((Tick/Count))
board.cache_hierarchy.l1d-cache-1.LoadLockedReq.avgMissLatency::total 10470.142109                       # average LoadLockedReq miss latency ((Tick/Count))
board.cache_hierarchy.l1d-cache-1.LoadLockedReq.mshrHits::processor.o31.core.data       196801                       # number of LoadLockedReq MSHR hits (Count)
board.cache_hierarchy.l1d-cache-1.LoadLockedReq.mshrHits::total       196801                       # number of LoadLockedReq MSHR hits (Count)
board.cache_hierarchy.l1d-cache-1.LoadLockedReq.mshrMisses::processor.o31.core.data         1722                       # number of LoadLockedReq MSHR misses (Count)
board.cache_hierarchy.l1d-cache-1.LoadLockedReq.mshrMisses::total         1722                       # number of LoadLockedReq MSHR misses (Count)
board.cache_hierarchy.l1d-cache-1.LoadLockedReq.mshrMissLatency::processor.o31.core.data     23599377                       # number of LoadLockedReq MSHR miss ticks (Tick)
board.cache_hierarchy.l1d-cache-1.LoadLockedReq.mshrMissLatency::total     23599377                       # number of LoadLockedReq MSHR miss ticks (Tick)
board.cache_hierarchy.l1d-cache-1.LoadLockedReq.mshrMissRate::processor.o31.core.data     0.001570                       # mshr miss rate for LoadLockedReq accesses (Ratio)
board.cache_hierarchy.l1d-cache-1.LoadLockedReq.mshrMissRate::total     0.001570                       # mshr miss rate for LoadLockedReq accesses (Ratio)
board.cache_hierarchy.l1d-cache-1.LoadLockedReq.avgMshrMissLatency::processor.o31.core.data 13704.632404                       # average LoadLockedReq mshr miss latency ((Tick/Count))
board.cache_hierarchy.l1d-cache-1.LoadLockedReq.avgMshrMissLatency::total 13704.632404                       # average LoadLockedReq mshr miss latency ((Tick/Count))
board.cache_hierarchy.l1d-cache-1.ReadReq.hits::processor.o31.core.data    120524351                       # number of ReadReq hits (Count)
board.cache_hierarchy.l1d-cache-1.ReadReq.hits::total    120524351                       # number of ReadReq hits (Count)
board.cache_hierarchy.l1d-cache-1.ReadReq.misses::processor.o31.core.data      1523059                       # number of ReadReq misses (Count)
board.cache_hierarchy.l1d-cache-1.ReadReq.misses::total      1523059                       # number of ReadReq misses (Count)
board.cache_hierarchy.l1d-cache-1.ReadReq.missLatency::processor.o31.core.data  15122125071                       # number of ReadReq miss ticks (Tick)
board.cache_hierarchy.l1d-cache-1.ReadReq.missLatency::total  15122125071                       # number of ReadReq miss ticks (Tick)
board.cache_hierarchy.l1d-cache-1.ReadReq.accesses::processor.o31.core.data    122047410                       # number of ReadReq accesses(hits+misses) (Count)
board.cache_hierarchy.l1d-cache-1.ReadReq.accesses::total    122047410                       # number of ReadReq accesses(hits+misses) (Count)
board.cache_hierarchy.l1d-cache-1.ReadReq.missRate::processor.o31.core.data     0.012479                       # miss rate for ReadReq accesses (Ratio)
board.cache_hierarchy.l1d-cache-1.ReadReq.missRate::total     0.012479                       # miss rate for ReadReq accesses (Ratio)
board.cache_hierarchy.l1d-cache-1.ReadReq.avgMissLatency::processor.o31.core.data  9928.784815                       # average ReadReq miss latency ((Tick/Count))
board.cache_hierarchy.l1d-cache-1.ReadReq.avgMissLatency::total  9928.784815                       # average ReadReq miss latency ((Tick/Count))
board.cache_hierarchy.l1d-cache-1.ReadReq.mshrHits::processor.o31.core.data       587294                       # number of ReadReq MSHR hits (Count)
board.cache_hierarchy.l1d-cache-1.ReadReq.mshrHits::total       587294                       # number of ReadReq MSHR hits (Count)
board.cache_hierarchy.l1d-cache-1.ReadReq.mshrMisses::processor.o31.core.data       935765                       # number of ReadReq MSHR misses (Count)
board.cache_hierarchy.l1d-cache-1.ReadReq.mshrMisses::total       935765                       # number of ReadReq MSHR misses (Count)
board.cache_hierarchy.l1d-cache-1.ReadReq.mshrUncacheable::processor.o31.core.data       325855                       # number of ReadReq MSHR uncacheable (Count)
board.cache_hierarchy.l1d-cache-1.ReadReq.mshrUncacheable::total       325855                       # number of ReadReq MSHR uncacheable (Count)
board.cache_hierarchy.l1d-cache-1.ReadReq.mshrMissLatency::processor.o31.core.data   9543446001                       # number of ReadReq MSHR miss ticks (Tick)
board.cache_hierarchy.l1d-cache-1.ReadReq.mshrMissLatency::total   9543446001                       # number of ReadReq MSHR miss ticks (Tick)
board.cache_hierarchy.l1d-cache-1.ReadReq.mshrUncacheableLatency::processor.o31.core.data  30140480349                       # number of ReadReq MSHR uncacheable ticks (Tick)
board.cache_hierarchy.l1d-cache-1.ReadReq.mshrUncacheableLatency::total  30140480349                       # number of ReadReq MSHR uncacheable ticks (Tick)
board.cache_hierarchy.l1d-cache-1.ReadReq.mshrMissRate::processor.o31.core.data     0.007667                       # mshr miss rate for ReadReq accesses (Ratio)
board.cache_hierarchy.l1d-cache-1.ReadReq.mshrMissRate::total     0.007667                       # mshr miss rate for ReadReq accesses (Ratio)
board.cache_hierarchy.l1d-cache-1.ReadReq.avgMshrMissLatency::processor.o31.core.data 10198.549851                       # average ReadReq mshr miss latency ((Tick/Count))
board.cache_hierarchy.l1d-cache-1.ReadReq.avgMshrMissLatency::total 10198.549851                       # average ReadReq mshr miss latency ((Tick/Count))
board.cache_hierarchy.l1d-cache-1.ReadReq.avgMshrUncacheableLatency::processor.o31.core.data 92496.602320                       # average ReadReq mshr uncacheable latency ((Tick/Count))
board.cache_hierarchy.l1d-cache-1.ReadReq.avgMshrUncacheableLatency::total 92496.602320                       # average ReadReq mshr uncacheable latency ((Tick/Count))
board.cache_hierarchy.l1d-cache-1.SoftPFExReq.hits::processor.o31.core.data       890285                       # number of SoftPFExReq hits (Count)
board.cache_hierarchy.l1d-cache-1.SoftPFExReq.hits::total       890285                       # number of SoftPFExReq hits (Count)
board.cache_hierarchy.l1d-cache-1.SoftPFExReq.misses::processor.o31.core.data       196770                       # number of SoftPFExReq misses (Count)
board.cache_hierarchy.l1d-cache-1.SoftPFExReq.misses::total       196770                       # number of SoftPFExReq misses (Count)
board.cache_hierarchy.l1d-cache-1.SoftPFExReq.accesses::processor.o31.core.data      1087055                       # number of SoftPFExReq accesses(hits+misses) (Count)
board.cache_hierarchy.l1d-cache-1.SoftPFExReq.accesses::total      1087055                       # number of SoftPFExReq accesses(hits+misses) (Count)
board.cache_hierarchy.l1d-cache-1.SoftPFExReq.missRate::processor.o31.core.data     0.181012                       # miss rate for SoftPFExReq accesses (Ratio)
board.cache_hierarchy.l1d-cache-1.SoftPFExReq.missRate::total     0.181012                       # miss rate for SoftPFExReq accesses (Ratio)
board.cache_hierarchy.l1d-cache-1.SoftPFExReq.mshrMisses::processor.o31.core.data       191054                       # number of SoftPFExReq MSHR misses (Count)
board.cache_hierarchy.l1d-cache-1.SoftPFExReq.mshrMisses::total       191054                       # number of SoftPFExReq MSHR misses (Count)
board.cache_hierarchy.l1d-cache-1.SoftPFExReq.mshrMissLatency::processor.o31.core.data   1932226173                       # number of SoftPFExReq MSHR miss ticks (Tick)
board.cache_hierarchy.l1d-cache-1.SoftPFExReq.mshrMissLatency::total   1932226173                       # number of SoftPFExReq MSHR miss ticks (Tick)
board.cache_hierarchy.l1d-cache-1.SoftPFExReq.mshrMissRate::processor.o31.core.data     0.175754                       # mshr miss rate for SoftPFExReq accesses (Ratio)
board.cache_hierarchy.l1d-cache-1.SoftPFExReq.mshrMissRate::total     0.175754                       # mshr miss rate for SoftPFExReq accesses (Ratio)
board.cache_hierarchy.l1d-cache-1.SoftPFExReq.avgMshrMissLatency::processor.o31.core.data 10113.508081                       # average SoftPFExReq mshr miss latency ((Tick/Count))
board.cache_hierarchy.l1d-cache-1.SoftPFExReq.avgMshrMissLatency::total 10113.508081                       # average SoftPFExReq mshr miss latency ((Tick/Count))
board.cache_hierarchy.l1d-cache-1.SoftPFReq.hits::processor.o31.core.data         6285                       # number of SoftPFReq hits (Count)
board.cache_hierarchy.l1d-cache-1.SoftPFReq.hits::total         6285                       # number of SoftPFReq hits (Count)
board.cache_hierarchy.l1d-cache-1.SoftPFReq.misses::processor.o31.core.data           38                       # number of SoftPFReq misses (Count)
board.cache_hierarchy.l1d-cache-1.SoftPFReq.misses::total           38                       # number of SoftPFReq misses (Count)
board.cache_hierarchy.l1d-cache-1.SoftPFReq.accesses::processor.o31.core.data         6323                       # number of SoftPFReq accesses(hits+misses) (Count)
board.cache_hierarchy.l1d-cache-1.SoftPFReq.accesses::total         6323                       # number of SoftPFReq accesses(hits+misses) (Count)
board.cache_hierarchy.l1d-cache-1.SoftPFReq.missRate::processor.o31.core.data     0.006010                       # miss rate for SoftPFReq accesses (Ratio)
board.cache_hierarchy.l1d-cache-1.SoftPFReq.missRate::total     0.006010                       # miss rate for SoftPFReq accesses (Ratio)
board.cache_hierarchy.l1d-cache-1.SoftPFReq.mshrMisses::processor.o31.core.data           38                       # number of SoftPFReq MSHR misses (Count)
board.cache_hierarchy.l1d-cache-1.SoftPFReq.mshrMisses::total           38                       # number of SoftPFReq MSHR misses (Count)
board.cache_hierarchy.l1d-cache-1.SoftPFReq.mshrMissLatency::processor.o31.core.data      1637694                       # number of SoftPFReq MSHR miss ticks (Tick)
board.cache_hierarchy.l1d-cache-1.SoftPFReq.mshrMissLatency::total      1637694                       # number of SoftPFReq MSHR miss ticks (Tick)
board.cache_hierarchy.l1d-cache-1.SoftPFReq.mshrMissRate::processor.o31.core.data     0.006010                       # mshr miss rate for SoftPFReq accesses (Ratio)
board.cache_hierarchy.l1d-cache-1.SoftPFReq.mshrMissRate::total     0.006010                       # mshr miss rate for SoftPFReq accesses (Ratio)
board.cache_hierarchy.l1d-cache-1.SoftPFReq.avgMshrMissLatency::processor.o31.core.data 43097.210526                       # average SoftPFReq mshr miss latency ((Tick/Count))
board.cache_hierarchy.l1d-cache-1.SoftPFReq.avgMshrMissLatency::total 43097.210526                       # average SoftPFReq mshr miss latency ((Tick/Count))
board.cache_hierarchy.l1d-cache-1.StoreCondFailReq.missLatency::processor.o31.core.data      3108888                       # number of StoreCondFailReq miss ticks (Tick)
board.cache_hierarchy.l1d-cache-1.StoreCondFailReq.missLatency::total      3108888                       # number of StoreCondFailReq miss ticks (Tick)
board.cache_hierarchy.l1d-cache-1.StoreCondFailReq.avgMissLatency::processor.o31.core.data          inf                       # average StoreCondFailReq miss latency ((Tick/Count))
board.cache_hierarchy.l1d-cache-1.StoreCondFailReq.avgMissLatency::total          inf                       # average StoreCondFailReq miss latency ((Tick/Count))
board.cache_hierarchy.l1d-cache-1.StoreCondFailReq.mshrMissLatency::processor.o31.core.data      3047949                       # number of StoreCondFailReq MSHR miss ticks (Tick)
board.cache_hierarchy.l1d-cache-1.StoreCondFailReq.mshrMissLatency::total      3047949                       # number of StoreCondFailReq MSHR miss ticks (Tick)
board.cache_hierarchy.l1d-cache-1.StoreCondFailReq.avgMshrMissLatency::processor.o31.core.data          inf                       # average StoreCondFailReq mshr miss latency ((Tick/Count))
board.cache_hierarchy.l1d-cache-1.StoreCondFailReq.avgMshrMissLatency::total          inf                       # average StoreCondFailReq mshr miss latency ((Tick/Count))
board.cache_hierarchy.l1d-cache-1.StoreCondReq.hits::processor.o31.core.data       980117                       # number of StoreCondReq hits (Count)
board.cache_hierarchy.l1d-cache-1.StoreCondReq.hits::total       980117                       # number of StoreCondReq hits (Count)
board.cache_hierarchy.l1d-cache-1.StoreCondReq.misses::processor.o31.core.data         6033                       # number of StoreCondReq misses (Count)
board.cache_hierarchy.l1d-cache-1.StoreCondReq.misses::total         6033                       # number of StoreCondReq misses (Count)
board.cache_hierarchy.l1d-cache-1.StoreCondReq.missLatency::processor.o31.core.data     55021923                       # number of StoreCondReq miss ticks (Tick)
board.cache_hierarchy.l1d-cache-1.StoreCondReq.missLatency::total     55021923                       # number of StoreCondReq miss ticks (Tick)
board.cache_hierarchy.l1d-cache-1.StoreCondReq.accesses::processor.o31.core.data       986150                       # number of StoreCondReq accesses(hits+misses) (Count)
board.cache_hierarchy.l1d-cache-1.StoreCondReq.accesses::total       986150                       # number of StoreCondReq accesses(hits+misses) (Count)
board.cache_hierarchy.l1d-cache-1.StoreCondReq.missRate::processor.o31.core.data     0.006118                       # miss rate for StoreCondReq accesses (Ratio)
board.cache_hierarchy.l1d-cache-1.StoreCondReq.missRate::total     0.006118                       # miss rate for StoreCondReq accesses (Ratio)
board.cache_hierarchy.l1d-cache-1.StoreCondReq.avgMissLatency::processor.o31.core.data  9120.159622                       # average StoreCondReq miss latency ((Tick/Count))
board.cache_hierarchy.l1d-cache-1.StoreCondReq.avgMissLatency::total  9120.159622                       # average StoreCondReq miss latency ((Tick/Count))
board.cache_hierarchy.l1d-cache-1.StoreCondReq.mshrHits::processor.o31.core.data           24                       # number of StoreCondReq MSHR hits (Count)
board.cache_hierarchy.l1d-cache-1.StoreCondReq.mshrHits::total           24                       # number of StoreCondReq MSHR hits (Count)
board.cache_hierarchy.l1d-cache-1.StoreCondReq.mshrMisses::processor.o31.core.data         5425                       # number of StoreCondReq MSHR misses (Count)
board.cache_hierarchy.l1d-cache-1.StoreCondReq.mshrMisses::total         5425                       # number of StoreCondReq MSHR misses (Count)
board.cache_hierarchy.l1d-cache-1.StoreCondReq.mshrMissLatency::processor.o31.core.data     53015265                       # number of StoreCondReq MSHR miss ticks (Tick)
board.cache_hierarchy.l1d-cache-1.StoreCondReq.mshrMissLatency::total     53015265                       # number of StoreCondReq MSHR miss ticks (Tick)
board.cache_hierarchy.l1d-cache-1.StoreCondReq.mshrMissRate::processor.o31.core.data     0.005501                       # mshr miss rate for StoreCondReq accesses (Ratio)
board.cache_hierarchy.l1d-cache-1.StoreCondReq.mshrMissRate::total     0.005501                       # mshr miss rate for StoreCondReq accesses (Ratio)
board.cache_hierarchy.l1d-cache-1.StoreCondReq.avgMshrMissLatency::processor.o31.core.data  9772.399078                       # average StoreCondReq mshr miss latency ((Tick/Count))
board.cache_hierarchy.l1d-cache-1.StoreCondReq.avgMshrMissLatency::total  9772.399078                       # average StoreCondReq mshr miss latency ((Tick/Count))
board.cache_hierarchy.l1d-cache-1.SwapReq.misses::processor.o31.core.data           13                       # number of SwapReq misses (Count)
board.cache_hierarchy.l1d-cache-1.SwapReq.misses::total           13                       # number of SwapReq misses (Count)
board.cache_hierarchy.l1d-cache-1.SwapReq.missLatency::processor.o31.core.data       186480                       # number of SwapReq miss ticks (Tick)
board.cache_hierarchy.l1d-cache-1.SwapReq.missLatency::total       186480                       # number of SwapReq miss ticks (Tick)
board.cache_hierarchy.l1d-cache-1.SwapReq.accesses::processor.o31.core.data           13                       # number of SwapReq accesses(hits+misses) (Count)
board.cache_hierarchy.l1d-cache-1.SwapReq.accesses::total           13                       # number of SwapReq accesses(hits+misses) (Count)
board.cache_hierarchy.l1d-cache-1.SwapReq.missRate::processor.o31.core.data            1                       # miss rate for SwapReq accesses (Ratio)
board.cache_hierarchy.l1d-cache-1.SwapReq.missRate::total            1                       # miss rate for SwapReq accesses (Ratio)
board.cache_hierarchy.l1d-cache-1.SwapReq.avgMissLatency::processor.o31.core.data 14344.615385                       # average SwapReq miss latency ((Tick/Count))
board.cache_hierarchy.l1d-cache-1.SwapReq.avgMissLatency::total 14344.615385                       # average SwapReq miss latency ((Tick/Count))
board.cache_hierarchy.l1d-cache-1.SwapReq.mshrMisses::processor.o31.core.data           13                       # number of SwapReq MSHR misses (Count)
board.cache_hierarchy.l1d-cache-1.SwapReq.mshrMisses::total           13                       # number of SwapReq MSHR misses (Count)
board.cache_hierarchy.l1d-cache-1.SwapReq.mshrMissLatency::processor.o31.core.data       182151                       # number of SwapReq MSHR miss ticks (Tick)
board.cache_hierarchy.l1d-cache-1.SwapReq.mshrMissLatency::total       182151                       # number of SwapReq MSHR miss ticks (Tick)
board.cache_hierarchy.l1d-cache-1.SwapReq.mshrMissRate::processor.o31.core.data            1                       # mshr miss rate for SwapReq accesses (Ratio)
board.cache_hierarchy.l1d-cache-1.SwapReq.mshrMissRate::total            1                       # mshr miss rate for SwapReq accesses (Ratio)
[...]
board.processor.o37.core.mmu.stage2_dtb.hits            0                       # Total TLB (inst and data) hits (Count)
board.processor.o37.core.mmu.stage2_dtb.misses            0                       # Total TLB (inst and data) misses (Count)
board.processor.o37.core.mmu.stage2_dtb.accesses            0                       # Total TLB (inst and data) accesses (Count)
board.processor.o37.core.mmu.stage2_dtb_walker.walks            0                       # Table walker walks requested (Count)
board.processor.o37.core.mmu.stage2_dtb_walker.requestOrigin_Requested::Data            0                       # Table walker requests started/completed, data/inst (Count)
board.processor.o37.core.mmu.stage2_dtb_walker.requestOrigin_Requested::Inst            0                       # Table walker requests started/completed, data/inst (Count)
board.processor.o37.core.mmu.stage2_dtb_walker.requestOrigin_Requested::total            0                       # Table walker requests started/completed, data/inst (Count)
board.processor.o37.core.mmu.stage2_dtb_walker.requestOrigin_Completed::Data            0                       # Table walker requests started/completed, data/inst (Count)
board.processor.o37.core.mmu.stage2_dtb_walker.requestOrigin_Completed::Inst            0                       # Table walker requests started/completed, data/inst (Count)
board.processor.o37.core.mmu.stage2_dtb_walker.requestOrigin_Completed::total            0                       # Table walker requests started/completed, data/inst (Count)
board.processor.o37.core.mmu.stage2_dtb_walker.requestOrigin::total            0                       # Table walker requests started/completed, data/inst (Count)
board.processor.o37.core.mmu.stage2_dtb_walker.power_state.pwrStateResidencyTicks::UNDEFINED 400732922989021                       # Cumulative time (in ticks) in various power states (Tick)
board.processor.o37.core.mmu.stage2_itb.instHits            0                       # Inst hits (Count)
board.processor.o37.core.mmu.stage2_itb.instMisses            0                       # Inst misses (Count)
board.processor.o37.core.mmu.stage2_itb.inserts            0                       # Number of times an entry is inserted into the TLB (Count)
board.processor.o37.core.mmu.stage2_itb.flushTlb            0                       # Number of times a TLB invalidation was requested (Count)
board.processor.o37.core.mmu.stage2_itb.flushedEntries            0                       # Number of entries that have been flushed from TLB (Count)
board.processor.o37.core.mmu.stage2_itb.instAccesses            0                       # Inst accesses (Count)
board.processor.o37.core.mmu.stage2_itb.hits            0                       # Total TLB (inst and data) hits (Count)
board.processor.o37.core.mmu.stage2_itb.misses            0                       # Total TLB (inst and data) misses (Count)
board.processor.o37.core.mmu.stage2_itb.accesses            0                       # Total TLB (inst and data) accesses (Count)
board.processor.o37.core.mmu.stage2_itb_walker.walks            0                       # Table walker walks requested (Count)
board.processor.o37.core.mmu.stage2_itb_walker.requestOrigin_Requested::Data            0                       # Table walker requests started/completed, data/inst (Count)
board.processor.o37.core.mmu.stage2_itb_walker.requestOrigin_Requested::Inst            0                       # Table walker requests started/completed, data/inst (Count)
board.processor.o37.core.mmu.stage2_itb_walker.requestOrigin_Requested::total            0                       # Table walker requests started/completed, data/inst (Count)
board.processor.o37.core.mmu.stage2_itb_walker.requestOrigin_Completed::Data            0                       # Table walker requests started/completed, data/inst (Count)
board.processor.o37.core.mmu.stage2_itb_walker.requestOrigin_Completed::Inst            0                       # Table walker requests started/completed, data/inst (Count)
board.processor.o37.core.mmu.stage2_itb_walker.requestOrigin_Completed::total            0                       # Table walker requests started/completed, data/inst (Count)
board.processor.o37.core.mmu.stage2_itb_walker.requestOrigin::total            0                       # Table walker requests started/completed, data/inst (Count)
board.processor.o37.core.mmu.stage2_itb_walker.power_state.pwrStateResidencyTicks::UNDEFINED 400732922989021                       # Cumulative time (in ticks) in various power states (Tick)
board.processor.o37.core.power_state.numTransitions       201614                       # Number of power state transitions (Count)
board.processor.o37.core.power_state.ticksClkGated::samples       100807                       # Distribution of time spent in the clock gated state (Tick)
board.processor.o37.core.power_state.ticksClkGated::mean 3965967531.834277                       # Distribution of time spent in the clock gated state (Tick)
board.processor.o37.core.power_state.ticksClkGated::stdev 363637235.024075                       # Distribution of time spent in the clock gated state (Tick)
board.processor.o37.core.power_state.ticksClkGated::underflows          436      0.43%      0.43% # Distribution of time spent in the clock gated state (Tick)
board.processor.o37.core.power_state.ticksClkGated::1000-5e+10       100371     99.57%    100.00% # Distribution of time spent in the clock gated state (Tick)
board.processor.o37.core.power_state.ticksClkGated::min_value          333                       # Distribution of time spent in the clock gated state (Tick)
board.processor.o37.core.power_state.ticksClkGated::max_value   7999451652                       # Distribution of time spent in the clock gated state (Tick)
board.processor.o37.core.power_state.ticksClkGated::total       100807                       # Distribution of time spent in the clock gated state (Tick)
board.processor.o37.core.power_state.pwrStateResidencyTicks::ON 200951993995                       # Cumulative time (in ticks) in various power states (Tick)
board.processor.o37.core.power_state.pwrStateResidencyTicks::CLK_GATED 399797288981618                       # Cumulative time (in ticks) in various power states (Tick)
board.processor.o37.core.power_state.pwrStateResidencyTicks::OFF 734682013408                       # Cumulative time (in ticks) in various power states (Tick)
board.processor.o37.core.rename.status::Running     94875591     15.73%     15.73% # Number of cycles rename is running (Cycle)
board.processor.o37.core.rename.status::Idle     47100579      7.81%     23.54% # Number of cycles rename is idle (Cycle)
board.processor.o37.core.rename.status::Squashing      2676924      0.44%     23.98% # Number of cycles rename is squashing (Cycle)
board.processor.o37.core.rename.status::Blocked      7923673      1.31%     25.29% # Number of cycles rename is blocking (Cycle)
board.processor.o37.core.rename.status::Unblocking     34888139      5.78%     31.08% # Number of cycles rename is unblocking (Cycle)
board.processor.o37.core.rename.status::SerializeStall    415746842     68.92%    100.00% # Number of cycles rename stalled for serializing inst (Cycle)
board.processor.o37.core.rename.renamedInsts    714427891                       # Number of instructions processed by rename (Count)
board.processor.o37.core.rename.ROBFullEvents       923225                       # Number of times rename has blocked due to ROB full (Count)
board.processor.o37.core.rename.IQFullEvents       222314                       # Number of times rename has blocked due to IQ full (Count)
board.processor.o37.core.rename.SQFullEvents       499258                       # Number of times rename has blocked due to SQ full (Count)
board.processor.o37.core.rename.fullRegistersEvents          371                       # Number of times there has been no free registers (Count)
board.processor.o37.core.rename.renamedOperands    633347295                       # Number of destination operands rename has renamed (Count)
board.processor.o37.core.rename.lookups     920964841                       # Number of register rename lookups that rename has made (Count)
board.processor.o37.core.rename.intLookups    755169590                       # Number of integer rename lookups (Count)
board.processor.o37.core.rename.vecLookups       670290                       # Number of vector rename lookups (Count)
board.processor.o37.core.rename.committedMaps    565876657                       # Number of HB maps that are committed (Count)
board.processor.o37.core.rename.undoneMaps     67470638                       # Number of HB maps that are undone due to squashing (Count)
board.processor.o37.core.rename.serializing     27986865                       # count of serializing insts renamed (Count)
board.processor.o37.core.rename.tempSerializing      4115423                       # count of temporary serializing insts renamed (Count)
board.processor.o37.core.rename.skidInsts    164405106                       # count of insts added to the skid buffer (Count)
board.processor.o37.core.rename.fastMoveOperation            0                       # Number of renamed fast move instructions (Count)
board.processor.o37.core.rename.maxInFlighFastMoves            0                       # Max number of fast move instructions (Count)
board.processor.o37.core.rename.vecRenameStall            0                       # Vector rename stalled due to rename width (Count)
board.processor.o37.core.rename.intReturned    480073828                       # count of registers freed and written back to integer free list (Count)
board.processor.o37.core.rob.reads         1269431698                       # The number of ROB reads (Count)
board.processor.o37.core.rob.writes        1416374550                       # The number of ROB writes (Count)
board.processor.o37.core.rob.vecCommitStall            0                       # Vector commit stalled due to vector commit width (Count)
board.processor.o37.core.thread_0.numInsts    508717249                       # Number of Instructions committed (Count)
board.processor.o37.core.thread_0.numOps    639087296                       # Number of Ops committed (Count)
board.processor.o37.core.thread_0.numMemRefs            0                       # Number of Memory References (Count)
board.realview.bootmem.power_state.pwrStateResidencyTicks::UNDEFINED 400732922989021                       # Cumulative time (in ticks) in various power states (Tick)
board.realview.clock24MHz.clock                 41667                       # Clock period in ticks (Tick)
board.realview.clock32KHz.clock              31250000                       # Clock period in ticks (Tick)
board.realview.dcc.osc_cpu.clock                16667                       # Clock period in ticks (Tick)
board.realview.dcc.osc_ddr.clock                25000                       # Clock period in ticks (Tick)
board.realview.dcc.osc_hsbm.clock               25000                       # Clock period in ticks (Tick)
board.realview.dcc.osc_pxl.clock                42105                       # Clock period in ticks (Tick)
board.realview.dcc.osc_smb.clock                20000                       # Clock period in ticks (Tick)
board.realview.dcc.osc_sys.clock                16667                       # Clock period in ticks (Tick)
board.realview.el2_watchdog.power_state.pwrStateResidencyTicks::UNDEFINED 400732922989021                       # Cumulative time (in ticks) in various power states (Tick)
board.realview.energy_ctrl.power_state.pwrStateResidencyTicks::UNDEFINED 400732922989021                       # Cumulative time (in ticks) in various power states (Tick)
board.realview.flash0.power_state.pwrStateResidencyTicks::UNDEFINED 400732922989021                       # Cumulative time (in ticks) in various power states (Tick)
board.realview.flash1.power_state.pwrStateResidencyTicks::UNDEFINED 400732922989021                       # Cumulative time (in ticks) in various power states (Tick)
board.realview.generic_timer_mem.frames0.power_state.pwrStateResidencyTicks::UNDEFINED 400732922989021                       # Cumulative time (in ticks) in various power states (Tick)
board.realview.generic_timer_mem.frames1.power_state.pwrStateResidencyTicks::UNDEFINED 400732922989021                       # Cumulative time (in ticks) in various power states (Tick)
board.realview.generic_timer_mem.power_state.pwrStateResidencyTicks::UNDEFINED 400732922989021                       # Cumulative time (in ticks) in various power states (Tick)
board.realview.gic.power_state.pwrStateResidencyTicks::UNDEFINED 400732922989021                       # Cumulative time (in ticks) in various power states (Tick)
board.realview.gicv2m.power_state.pwrStateResidencyTicks::UNDEFINED 400732922989021                       # Cumulative time (in ticks) in various power states (Tick)
board.realview.io_voltage.voltage            3.300000                       # Voltage in Volts (Volt)
board.realview.kmi0.power_state.pwrStateResidencyTicks::UNDEFINED 400732922989021                       # Cumulative time (in ticks) in various power states (Tick)
board.realview.kmi1.power_state.pwrStateResidencyTicks::UNDEFINED 400732922989021                       # Cumulative time (in ticks) in various power states (Tick)
board.realview.mcc.osc_clcd.clock               42105                       # Clock period in ticks (Tick)
board.realview.mcc.osc_mcc.clock                20000                       # Clock period in ticks (Tick)
board.realview.mcc.osc_peripheral.clock         41667                       # Clock period in ticks (Tick)
board.realview.mcc.osc_system_bus.clock         41667                       # Clock period in ticks (Tick)
board.realview.non_trusted_sram.power_state.pwrStateResidencyTicks::UNDEFINED 400732922989021                       # Cumulative time (in ticks) in various power states (Tick)
board.realview.pci_bus.transDist::ReadReq          124                       # Transaction distribution (Count)
board.realview.pci_bus.transDist::ReadResp          124                       # Transaction distribution (Count)
board.realview.pci_bus.transDist::WriteReq          163                       # Transaction distribution (Count)
board.realview.pci_bus.transDist::WriteResp          163                       # Transaction distribution (Count)
board.realview.pci_bus.pktCount_board.realview.pci_host.up_to_down.mem_side_port::board.pci_devices.pio          574                       # Packet count per connected requestor and responder (Count)
board.realview.pci_bus.pktCount_board.realview.pci_host.up_to_down.mem_side_port::total          574                       # Packet count per connected requestor and responder (Count)
board.realview.pci_bus.pktCount::total            574                       # Packet count per connected requestor and responder (Count)
board.realview.pci_bus.pktSize_board.realview.pci_host.up_to_down.mem_side_port::board.pci_devices.pio          450                       # Cumulative packet size per connected requestor and responder (Byte)
board.realview.pci_bus.pktSize_board.realview.pci_host.up_to_down.mem_side_port::total          450                       # Cumulative packet size per connected requestor and responder (Byte)
board.realview.pci_bus.pktSize::total             450                       # Cumulative packet size per connected requestor and responder (Byte)
board.realview.pci_bus.badaddr_responder.power_state.pwrStateResidencyTicks::UNDEFINED 400732922989021                       # Cumulative time (in ticks) in various power states (Tick)
board.realview.pci_bus.power_state.pwrStateResidencyTicks::UNDEFINED 400732922989021                       # Cumulative time (in ticks) in various power states (Tick)
board.realview.pci_bus.reqLayer1.occupancy       149850                       # Layer occupancy (ticks) (Tick)
board.realview.pci_bus.reqLayer1.utilization          0.0                       # Layer utilization (Ratio)
board.realview.pci_bus.respLayer0.occupancy       136863                       # Layer occupancy (ticks) (Tick)
board.realview.pci_bus.respLayer0.utilization          0.0                       # Layer utilization (Ratio)
board.realview.pci_host.down_to_up.power_state.pwrStateResidencyTicks::UNDEFINED 400732922989021                       # Cumulative time (in ticks) in various power states (Tick)
board.realview.pci_host.power_state.pwrStateResidencyTicks::UNDEFINED 400732922989021                       # Cumulative time (in ticks) in various power states (Tick)
board.realview.pci_host.up_to_down.power_state.pwrStateResidencyTicks::UNDEFINED 400732922989021                       # Cumulative time (in ticks) in various power states (Tick)
board.realview.pwr_ctrl.power_state.pwrStateResidencyTicks::UNDEFINED 400732922989021                       # Cumulative time (in ticks) in various power states (Tick)
board.realview.realview_io.power_state.pwrStateResidencyTicks::UNDEFINED 400732922989021                       # Cumulative time (in ticks) in various power states (Tick)
board.realview.rtc.power_state.pwrStateResidencyTicks::UNDEFINED 400732922989021                       # Cumulative time (in ticks) in various power states (Tick)
board.realview.system_watchdog.power_state.pwrStateResidencyTicks::UNDEFINED 400732922989021                       # Cumulative time (in ticks) in various power states (Tick)
board.realview.trusted_dram.power_state.pwrStateResidencyTicks::UNDEFINED 400732922989021                       # Cumulative time (in ticks) in various power states (Tick)
board.realview.trusted_sram.power_state.pwrStateResidencyTicks::UNDEFINED 400732922989021                       # Cumulative time (in ticks) in various power states (Tick)
board.realview.trusted_watchdog.power_state.pwrStateResidencyTicks::UNDEFINED 400732922989021                       # Cumulative time (in ticks) in various power states (Tick)
board.realview.uart0.power_state.pwrStateResidencyTicks::UNDEFINED 400732922989021                       # Cumulative time (in ticks) in various power states (Tick)
board.realview.uart1.power_state.pwrStateResidencyTicks::UNDEFINED 400732922989021                       # Cumulative time (in ticks) in various power states (Tick)
board.realview.uart2.power_state.pwrStateResidencyTicks::UNDEFINED 400732922989021                       # Cumulative time (in ticks) in various power states (Tick)
board.realview.uart3.power_state.pwrStateResidencyTicks::UNDEFINED 400732922989021                       # Cumulative time (in ticks) in various power states (Tick)
board.realview.vgic.power_state.pwrStateResidencyTicks::UNDEFINED 400732922989021                       # Cumulative time (in ticks) in various power states (Tick)
board.realview.vio0.power_state.pwrStateResidencyTicks::UNDEFINED 400732922989021                       # Cumulative time (in ticks) in various power states (Tick)
board.realview.vio1.power_state.pwrStateResidencyTicks::UNDEFINED 400732922989021                       # Cumulative time (in ticks) in various power states (Tick)
board.realview.vram.power_state.pwrStateResidencyTicks::UNDEFINED 400732922989021                       # Cumulative time (in ticks) in various power states (Tick)
board.realview.watchdog.power_state.pwrStateResidencyTicks::UNDEFINED 400732922989021                       # Cumulative time (in ticks) in various power states (Tick)
board.voltage_domain.voltage                        1                       # Voltage in Volts (Volt)
board.workload.inst.arm                             0                       # number of arm instructions executed (Count)
board.workload.inst.quiesce                    807224                       # number of quiesce instructions executed (Count)

---------- End Simulation Statistics   ----------
